
 *******************************************************************************

         NASA-GLENN CHEMICAL EQUILIBRIUM PROGRAM CEA2, FEBRUARY 5, 2004
                   BY  BONNIE MCBRIDE AND SANFORD GORDON
      REFS: NASA RP-1311, PART I, 1994 AND NASA RP-1311, PART II, 1996

 *******************************************************************************



  
 ### CEA analysis performed on Sat 24-May-2025 10:27:05
  
 # Problem Type: "Rocket" (Infinite Area Combustor)
  
 prob case = _______________7143 ro equilibrium
  
 # Pressure (1 value):
 p,atm= 50
 # Chamber/Exit Pressure Ratio (1 value):
 pi/p= 56
  
 # Oxidizer/Fuel Wt. ratio (14 values):
 o/f = 2, 2.05, 2.1, 2.15, 2.2, 2.25, 2.3, 2.35, 2.4, 2.45, 2.5, 2.55, 2.6, 2.65
  
 # You selected the following fuels and oxidizers:
 reac
 fuel AL(cr)            wt%= 60.0000
 fuel C4H6,butadiene    wt%= 40.0000
 oxid NH4CLO4(II)       wt%=100.0000
  
 # You selected these options for output:
 # short version of output
 output short
 # Proportions of any products will be expressed as Mass Fractions.
 output massf
 # Heat will be expressed as siunits
 output siunits
  
 # Input prepared by this script:/var/www/sites/cearun/cgi-bin/CEARUN/prepareInpu
 tFile.cgi
  
 ### IMPORTANT:  The following line is the end of your CEA input file!
 end





              THEORETICAL ROCKET PERFORMANCE ASSUMING EQUILIBRIUM

           COMPOSITION DURING EXPANSION FROM INFINITE AREA COMBUSTOR

 Pin =   734.8 PSIA
 CASE = _______________

             REACTANT                    WT FRACTION      ENERGY      TEMP
                                          (SEE NOTE)     KJ/KG-MOL      K  
 FUEL        AL(cr)                       0.6000000         0.000      0.000
 FUEL        C4H6,butadiene               0.4000000         0.000      0.000
 OXIDANT     NH4CLO4(II)                  1.0000000         0.000      0.000

 O/F=    2.00000  %FUEL= 33.333333  R,EQ.RATIO= 1.941795  PHI,EQ.RATIO= 2.695232

                 CHAMBER   THROAT     EXIT
 Pinf/P            1.0000   1.7229   56.000
 P, BAR            50.663   29.405  0.90469
 T, K             3734.44  3562.18  2576.21
 RHO, KG/CU M    4.3595 0 2.6831 0 1.2112-1
 H, KJ/KG         0.00000  -614.02 -3791.77
 U, KJ/KG        -1162.12 -1709.95 -4538.71
 G, KJ/KG        -37286.8 -36180.9 -29514.2
 S, KJ/(KG)(K)     9.9846   9.9846   9.9846

 M, (1/n)          26.719   27.025   28.677
 MW, MOL WT        25.022   25.141   25.972
 (dLV/dLP)t      -1.04101 -1.03528 -1.00842
 (dLV/dLT)p        1.7194   1.6421   1.1931
 Cp, KJ/(KG)(K)    6.1713   5.8072   3.2559
 GAMMAs            1.1212   1.1205   1.1342
 SON VEL,M/SEC     1141.5   1108.2    920.4
 MACH NUMBER        0.000    1.000    2.992

 PERFORMANCE PARAMETERS

 Ae/At                      1.0000   8.9144
 CSTAR, M/SEC               1703.9   1703.9
 CF                         0.6504   1.6162
 Ivac, M/SEC                2097.1   3025.1
 Isp, M/SEC                 1108.2   2753.8


 MASS FRACTIONS

 *AL              0.00199  0.00143  0.00002
 ALCL             0.06055  0.05405  0.00688
 ALCL2            0.00420  0.00343  0.00032
 ALCL3            0.00069  0.00064  0.00027
 ALH              0.00043  0.00027  0.00000
 ALHCL            0.00032  0.00020  0.00000
 ALHCL2           0.00028  0.00021  0.00001
 ALH2CL           0.00001  0.00001  0.00000
 *ALO             0.00328  0.00211  0.00001
 ALOCL            0.00410  0.00320  0.00017
 ALOCL2           0.00002  0.00002  0.00000
 ALOH             0.03547  0.02702  0.00114
 ALOHCL           0.00525  0.00361  0.00010
 ALOHCL2          0.00309  0.00243  0.00033
 ALO2             0.00006  0.00003  0.00000
 AL(OH)2          0.00125  0.00072  0.00001
 AL(OH)2CL        0.00092  0.00061  0.00002
 AL(OH)3          0.00021  0.00012  0.00000
 AL2O             0.00445  0.00285  0.00001
 AL2O2            0.00128  0.00072  0.00000
 AL2O3            0.00001  0.00000  0.00000
 *CO              0.26751  0.26819  0.27102
 COCL             0.00001  0.00000  0.00000
 *CO2             0.01351  0.01248  0.00810
 *CL              0.02162  0.02053  0.00764
 CLO              0.00002  0.00001  0.00000
 CL2              0.00005  0.00004  0.00001
 *H               0.00286  0.00265  0.00081
 HALO             0.00005  0.00003  0.00000
 HALO2            0.00013  0.00008  0.00000
 HCN              0.00001  0.00001  0.00000
 HCO              0.00004  0.00003  0.00000
 HCL              0.13849  0.14587  0.19419
 HOCL             0.00001  0.00001  0.00000
 *H2              0.02323  0.02405  0.02812
 H2O              0.05738  0.05329  0.03061
 *N               0.00001  0.00001  0.00000
 *NH              0.00001  0.00001  0.00000
 NH2              0.00001  0.00000  0.00000
 NH3              0.00001  0.00000  0.00000
 *NO              0.00094  0.00064  0.00002
 *N2              0.07899  0.07915  0.07947
 *O               0.00092  0.00063  0.00001
 *OH              0.00739  0.00565  0.00041
 *O2              0.00019  0.00012  0.00000
 AL2O3(L)         0.25869  0.28281  0.37026

  * THERMODYNAMIC PROPERTIES FITTED TO 20000.K

 NOTE. WEIGHT FRACTION OF FUEL IN TOTAL FUELS AND OF OXIDANT IN TOTAL OXIDANTS










              THEORETICAL ROCKET PERFORMANCE ASSUMING EQUILIBRIUM

           COMPOSITION DURING EXPANSION FROM INFINITE AREA COMBUSTOR

 Pin =   734.8 PSIA
 CASE = _______________

             REACTANT                    WT FRACTION      ENERGY      TEMP
                                          (SEE NOTE)     KJ/KG-MOL      K  
 FUEL        AL(cr)                       0.6000000         0.000      0.000
 FUEL        C4H6,butadiene               0.4000000         0.000      0.000
 OXIDANT     NH4CLO4(II)                  1.0000000         0.000      0.000

 O/F=    2.05000  %FUEL= 32.786885  R,EQ.RATIO= 1.905275  PHI,EQ.RATIO= 2.629494

                 CHAMBER   THROAT     EXIT
 Pinf/P            1.0000   1.7228   56.000
 P, BAR            50.663   29.408  0.90469
 T, K             3751.38  3579.12  2589.37
 RHO, KG/CU M    4.3521 0 2.6785 0 1.2095-1
 H, KJ/KG         0.00000  -615.00 -3798.78
 U, KJ/KG        -1164.08 -1712.91 -4546.75
 G, KJ/KG        -37468.1 -36362.6 -29660.9
 S, KJ/(KG)(K)     9.9878   9.9878   9.9878

 M, (1/n)          26.794   27.105   28.783
 MW, MOL WT        25.094   25.216   26.091
 (dLV/dLP)t      -1.04263 -1.03670 -1.00871
 (dLV/dLT)p        1.7435   1.6637   1.1967
 Cp, KJ/(KG)(K)    6.2677   5.8929   3.2406
 GAMMAs            1.1209   1.1203   1.1350
 SON VEL,M/SEC     1142.3   1109.1    921.4
 MACH NUMBER        0.000    1.000    2.992

 PERFORMANCE PARAMETERS

 Ae/At                      1.0000   8.9104
 CSTAR, M/SEC               1705.5   1705.5
 CF                         0.6503   1.6162
 Ivac, M/SEC                2099.0   3027.7
 Isp, M/SEC                 1109.1   2756.4


 MASS FRACTIONS

 *AL              0.00184  0.00131  0.00002
 ALCL             0.05585  0.04924  0.00525
 ALCL2            0.00397  0.00320  0.00025
 ALCL3            0.00066  0.00060  0.00020
 ALH              0.00039  0.00024  0.00000
 ALHCL            0.00029  0.00018  0.00000
 ALHCL2           0.00026  0.00019  0.00001
 ALH2CL           0.00001  0.00001  0.00000
 *ALO             0.00341  0.00220  0.00002
 ALOCL            0.00425  0.00332  0.00017
 ALOCL2           0.00003  0.00002  0.00000
 ALOH             0.03481  0.02652  0.00109
 ALOHCL           0.00530  0.00363  0.00010
 ALOHCL2          0.00313  0.00245  0.00031
 ALO2             0.00008  0.00004  0.00000
 AL(OH)2          0.00135  0.00078  0.00001
 AL(OH)2CL        0.00099  0.00066  0.00003
 AL(OH)3          0.00025  0.00014  0.00000
 AL2O             0.00395  0.00250  0.00001
 AL2O2            0.00128  0.00072  0.00000
 AL2O3            0.00001  0.00000  0.00000
 *CO              0.26216  0.26281  0.26513
 COCL             0.00001  0.00000  0.00000
 *CO2             0.01480  0.01383  0.01025
 *CL              0.02317  0.02208  0.00828
 CLO              0.00003  0.00002  0.00000
 CL2              0.00006  0.00005  0.00001
 *H               0.00291  0.00270  0.00084
 HALO             0.00006  0.00003  0.00000
 HALO2            0.00015  0.00009  0.00000
 HCN              0.00001  0.00001  0.00000
 HCO              0.00004  0.00003  0.00000
 HCL              0.14141  0.14891  0.19631
 HOCL             0.00001  0.00001  0.00000
 *H2              0.02246  0.02324  0.02710
 H2O              0.06217  0.05841  0.03835
 *N               0.00001  0.00001  0.00000
 *NH              0.00001  0.00001  0.00000
 NH2              0.00001  0.00000  0.00000
 NH3              0.00001  0.00000  0.00000
 *NO              0.00111  0.00077  0.00003
 *N2              0.07957  0.07974  0.08011
 *O               0.00110  0.00078  0.00002
 *OH              0.00848  0.00658  0.00057
 *O2              0.00026  0.00017  0.00000
 AL2O3(L)         0.25791  0.28176  0.36554

  * THERMODYNAMIC PROPERTIES FITTED TO 20000.K

 NOTE. WEIGHT FRACTION OF FUEL IN TOTAL FUELS AND OF OXIDANT IN TOTAL OXIDANTS










              THEORETICAL ROCKET PERFORMANCE ASSUMING EQUILIBRIUM

           COMPOSITION DURING EXPANSION FROM INFINITE AREA COMBUSTOR

 Pin =   734.8 PSIA
 CASE = _______________

             REACTANT                    WT FRACTION      ENERGY      TEMP
                                          (SEE NOTE)     KJ/KG-MOL      K  
 FUEL        AL(cr)                       0.6000000         0.000      0.000
 FUEL        C4H6,butadiene               0.4000000         0.000      0.000
 OXIDANT     NH4CLO4(II)                  1.0000000         0.000      0.000

 O/F=    2.10000  %FUEL= 32.258065  R,EQ.RATIO= 1.870493  PHI,EQ.RATIO= 2.566887

                 CHAMBER   THROAT     EXIT
 Pinf/P            1.0000   1.7227   56.000
 P, BAR            50.663   29.409  0.90469
 T, K             3766.51  3594.19  2601.13
 RHO, KG/CU M    4.3463 0 2.6748 0 1.2083-1
 H, KJ/KG         0.00000  -615.79 -3804.11
 U, KJ/KG        -1165.66 -1715.27 -4552.86
 G, KJ/KG        -37628.9 -36523.1 -29790.4
 S, KJ/(KG)(K)     9.9904   9.9904   9.9904

 M, (1/n)          26.866   27.180   28.884
 MW, MOL WT        25.163   25.290   26.208
 (dLV/dLP)t      -1.04418 -1.03804 -1.00901
 (dLV/dLT)p        1.7662   1.6838   1.2012
 Cp, KJ/(KG)(K)    6.3557   5.9695   3.2397
 GAMMAs            1.1207   1.1201   1.1353
 SON VEL,M/SEC     1143.0   1109.8    922.0
 MACH NUMBER        0.000    1.000    2.992

 PERFORMANCE PARAMETERS

 Ae/At                      1.0000   8.9069
 CSTAR, M/SEC               1706.7   1706.7
 CF                         0.6502   1.6162
 Ivac, M/SEC                2100.5   3029.8
 Isp, M/SEC                 1109.8   2758.3


 MASS FRACTIONS

 *AL              0.00171  0.00120  0.00001
 ALCL             0.05167  0.04505  0.00422
 ALCL2            0.00376  0.00300  0.00020
 ALCL3            0.00063  0.00056  0.00016
 ALH              0.00035  0.00022  0.00000
 ALHCL            0.00027  0.00016  0.00000
 ALHCL2           0.00024  0.00017  0.00001
 ALH2CL           0.00001  0.00000  0.00000
 *ALO             0.00351  0.00227  0.00002
 ALOCL            0.00438  0.00342  0.00017
 ALOCL2           0.00003  0.00002  0.00000
 ALOH             0.03410  0.02596  0.00104
 ALOHCL           0.00532  0.00364  0.00009
 ALOHCL2          0.00316  0.00247  0.00030
 ALO2             0.00009  0.00004  0.00000
 AL(OH)2          0.00144  0.00084  0.00001
 AL(OH)2CL        0.00106  0.00071  0.00003
 AL(OH)3          0.00028  0.00017  0.00000
 AL2O             0.00352  0.00220  0.00001
 AL2O2            0.00127  0.00071  0.00000
 AL2O3            0.00001  0.00000  0.00000
 *CO              0.25696  0.25756  0.25936
 COCL             0.00001  0.00000  0.00000
 *CO2             0.01609  0.01520  0.01242
 *CL              0.02467  0.02356  0.00891
 CLO              0.00003  0.00002  0.00000
 CL2              0.00006  0.00005  0.00001
 *H               0.00294  0.00274  0.00087
 HALO             0.00006  0.00003  0.00000
 HALO2            0.00016  0.00010  0.00000
 HCN              0.00001  0.00001  0.00000
 HCO              0.00004  0.00003  0.00000
 HCL              0.14401  0.15158  0.19799
 HOCL             0.00002  0.00001  0.00000
 *H2              0.02172  0.02247  0.02611
 H2O              0.06683  0.06344  0.04602
 *N               0.00001  0.00001  0.00000
 *NH              0.00001  0.00001  0.00000
 NH2              0.00001  0.00000  0.00000
 NH3              0.00001  0.00000  0.00000
 *NO              0.00129  0.00091  0.00004
 *N2              0.08011  0.08030  0.08074
 *O               0.00130  0.00093  0.00003
 *OH              0.00960  0.00756  0.00073
 *O2              0.00034  0.00023  0.00000
 AL2O3(L)         0.25688  0.28040  0.36050

  * THERMODYNAMIC PROPERTIES FITTED TO 20000.K

 NOTE. WEIGHT FRACTION OF FUEL IN TOTAL FUELS AND OF OXIDANT IN TOTAL OXIDANTS










              THEORETICAL ROCKET PERFORMANCE ASSUMING EQUILIBRIUM

           COMPOSITION DURING EXPANSION FROM INFINITE AREA COMBUSTOR

 Pin =   734.8 PSIA
 CASE = _______________

             REACTANT                    WT FRACTION      ENERGY      TEMP
                                          (SEE NOTE)     KJ/KG-MOL      K  
 FUEL        AL(cr)                       0.6000000         0.000      0.000
 FUEL        C4H6,butadiene               0.4000000         0.000      0.000
 OXIDANT     NH4CLO4(II)                  1.0000000         0.000      0.000

 O/F=    2.15000  %FUEL= 31.746032  R,EQ.RATIO= 1.837329  PHI,EQ.RATIO= 2.507192

                 CHAMBER   THROAT     EXIT
 Pinf/P            1.0000   1.7226   56.000
 P, BAR            50.663   29.410  0.90469
 T, K             3780.03  3607.62  2612.02
 RHO, KG/CU M    4.3417 0 2.6720 0 1.2072-1
 H, KJ/KG         0.00000  -616.42 -3808.16
 U, KJ/KG        -1166.89 -1717.12 -4557.55
 G, KJ/KG        -37771.5 -36665.1 -29908.4
 S, KJ/(KG)(K)     9.9924   9.9924   9.9924

 M, (1/n)          26.934   27.251   28.980
 MW, MOL WT        25.230   25.362   26.322
 (dLV/dLP)t      -1.04565 -1.03931 -1.00934
 (dLV/dLT)p        1.7877   1.7028   1.2066
 Cp, KJ/(KG)(K)    6.4368   6.0393   3.2497
 GAMMAs            1.1206   1.1200   1.1353
 SON VEL,M/SEC     1143.5   1110.3    922.4
 MACH NUMBER        0.000    1.000    2.992

 PERFORMANCE PARAMETERS

 Ae/At                      1.0000   8.9047
 CSTAR, M/SEC               1707.7   1707.7
 CF                         0.6502   1.6161
 Ivac, M/SEC                2101.7   3031.3
 Isp, M/SEC                 1110.3   2759.8


 MASS FRACTIONS

 *AL              0.00158  0.00111  0.00001
 ALCL             0.04796  0.04137  0.00352
 ALCL2            0.00358  0.00282  0.00017
 ALCL3            0.00060  0.00053  0.00013
 ALH              0.00032  0.00020  0.00000
 ALHCL            0.00025  0.00015  0.00000
 ALHCL2           0.00022  0.00016  0.00001
 ALH2CL           0.00001  0.00000  0.00000
 *ALO             0.00359  0.00233  0.00002
 ALOCL            0.00449  0.00350  0.00017
 ALOCL2           0.00003  0.00002  0.00000
 ALOH             0.03333  0.02536  0.00101
 ALOHCL           0.00533  0.00364  0.00009
 ALOHCL2          0.00319  0.00248  0.00028
 ALO2             0.00010  0.00005  0.00000
 AL(OH)2          0.00152  0.00090  0.00001
 AL(OH)2CL        0.00113  0.00076  0.00004
 AL(OH)3          0.00031  0.00019  0.00000
 AL2O             0.00314  0.00195  0.00000
 AL2O2            0.00125  0.00070  0.00000
 AL2O3            0.00001  0.00000  0.00000
 *CO              0.25191  0.25245  0.25373
 COCL             0.00001  0.00000  0.00000
 *CO2             0.01738  0.01656  0.01461
 *CL              0.02613  0.02500  0.00953
 CLO              0.00004  0.00002  0.00000
 CL2              0.00007  0.00005  0.00001
 *H               0.00297  0.00277  0.00089
 HALO             0.00006  0.00003  0.00000
 HALO2            0.00018  0.00011  0.00000
 HCN              0.00001  0.00001  0.00000
 HCO              0.00004  0.00003  0.00000
 HCL              0.14635  0.15395  0.19940
 HOCL             0.00002  0.00001  0.00000
 *H2              0.02101  0.02172  0.02515
 H2O              0.07136  0.06835  0.05353
 *N               0.00002  0.00001  0.00000
 *NH              0.00001  0.00001  0.00000
 NH2              0.00001  0.00000  0.00000
 NH3              0.00001  0.00000  0.00000
 *NO              0.00148  0.00106  0.00005
 *N2              0.08063  0.08084  0.08135
 *O               0.00152  0.00111  0.00004
 *OH              0.01075  0.00857  0.00092
 *O2              0.00044  0.00030  0.00001
 AL2O3(L)         0.25565  0.27879  0.35534

  * THERMODYNAMIC PROPERTIES FITTED TO 20000.K

 NOTE. WEIGHT FRACTION OF FUEL IN TOTAL FUELS AND OF OXIDANT IN TOTAL OXIDANTS










              THEORETICAL ROCKET PERFORMANCE ASSUMING EQUILIBRIUM

           COMPOSITION DURING EXPANSION FROM INFINITE AREA COMBUSTOR

 Pin =   734.8 PSIA
 CASE = _______________

             REACTANT                    WT FRACTION      ENERGY      TEMP
                                          (SEE NOTE)     KJ/KG-MOL      K  
 FUEL        AL(cr)                       0.6000000         0.000      0.000
 FUEL        C4H6,butadiene               0.4000000         0.000      0.000
 OXIDANT     NH4CLO4(II)                  1.0000000         0.000      0.000

 O/F=    2.20000  %FUEL= 31.250000  R,EQ.RATIO= 1.805673  PHI,EQ.RATIO= 2.450211

                 CHAMBER   THROAT     EXIT
 Pinf/P            1.0000   1.7226   56.000
 P, BAR            50.663   29.411  0.90469
 T, K             3792.12  3619.61  2622.26
 RHO, KG/CU M    4.3382 0 2.6698 0 1.2063-1
 H, KJ/KG         0.00000  -616.90 -3811.22
 U, KJ/KG        -1167.83 -1718.53 -4561.16
 G, KJ/KG        -37897.9 -36790.8 -30017.7
 S, KJ/(KG)(K)     9.9938   9.9938   9.9938

 M, (1/n)          26.999   27.319   29.073
 MW, MOL WT        25.295   25.432   26.433
 (dLV/dLP)t      -1.04706 -1.04053 -1.00968
 (dLV/dLT)p        1.8082   1.7209   1.2126
 Cp, KJ/(KG)(K)    6.5123   6.1041   3.2676
 GAMMAs            1.1205   1.1200   1.1351
 SON VEL,M/SEC     1143.9   1110.8    922.6
 MACH NUMBER        0.000    1.000    2.992

 PERFORMANCE PARAMETERS

 Ae/At                      1.0000   8.9039
 CSTAR, M/SEC               1708.4   1708.4
 CF                         0.6502   1.6161
 Ivac, M/SEC                2102.5   3032.5
 Isp, M/SEC                 1110.8   2760.9


 MASS FRACTIONS

 *AL              0.00147  0.00102  0.00001
 ALCL             0.04463  0.03813  0.00302
 ALCL2            0.00340  0.00265  0.00015
 ALCL3            0.00057  0.00050  0.00011
 ALH              0.00029  0.00018  0.00000
 ALHCL            0.00023  0.00014  0.00000
 ALHCL2           0.00021  0.00014  0.00001
 ALH2CL           0.00001  0.00000  0.00000
 *ALO             0.00366  0.00237  0.00002
 ALOCL            0.00459  0.00358  0.00017
 ALOCL2           0.00003  0.00002  0.00000
 ALOH             0.03253  0.02473  0.00098
 ALOHCL           0.00533  0.00364  0.00009
 ALOHCL2          0.00321  0.00248  0.00027
 ALO2             0.00012  0.00006  0.00000
 AL(OH)2          0.00159  0.00095  0.00001
 AL(OH)2CL        0.00120  0.00081  0.00004
 AL(OH)3          0.00035  0.00021  0.00001
 AL2O             0.00281  0.00173  0.00000
 AL2O2            0.00123  0.00069  0.00000
 AL2O3            0.00001  0.00000  0.00000
 *CO              0.24699  0.24747  0.24822
 COCL             0.00001  0.00000  0.00000
 *CO2             0.01865  0.01793  0.01680
 *CL              0.02753  0.02639  0.01016
 CLO              0.00004  0.00003  0.00000
 CL2              0.00007  0.00006  0.00001
 *H               0.00298  0.00279  0.00091
 HALO             0.00006  0.00003  0.00000
 HALO2            0.00019  0.00012  0.00000
 HCN              0.00001  0.00001  0.00000
 HCO              0.00004  0.00003  0.00000
 HCL              0.14846  0.15605  0.20062
 HOCL             0.00002  0.00002  0.00000
 *H2              0.02034  0.02100  0.02422
 H2O              0.07575  0.07313  0.06083
 *N               0.00002  0.00001  0.00000
 *NH              0.00001  0.00001  0.00000
 NH2              0.00001  0.00000  0.00000
 NH3              0.00001  0.00000  0.00000
 *NO              0.00168  0.00123  0.00006
 *N2              0.08113  0.08136  0.08193
 *O               0.00175  0.00129  0.00005
 *OH              0.01193  0.00961  0.00112
 *O2              0.00055  0.00038  0.00001
 AL2O3(L)         0.25427  0.27699  0.35017

  * THERMODYNAMIC PROPERTIES FITTED TO 20000.K

 NOTE. WEIGHT FRACTION OF FUEL IN TOTAL FUELS AND OF OXIDANT IN TOTAL OXIDANTS










              THEORETICAL ROCKET PERFORMANCE ASSUMING EQUILIBRIUM

           COMPOSITION DURING EXPANSION FROM INFINITE AREA COMBUSTOR

 Pin =   734.8 PSIA
 CASE = _______________

             REACTANT                    WT FRACTION      ENERGY      TEMP
                                          (SEE NOTE)     KJ/KG-MOL      K  
 FUEL        AL(cr)                       0.6000000         0.000      0.000
 FUEL        C4H6,butadiene               0.4000000         0.000      0.000
 OXIDANT     NH4CLO4(II)                  1.0000000         0.000      0.000

 O/F=    2.25000  %FUEL= 30.769231  R,EQ.RATIO= 1.775423  PHI,EQ.RATIO= 2.395761

                 CHAMBER   THROAT     EXIT
 Pinf/P            1.0000   1.7226   56.000
 P, BAR            50.663   29.411  0.90469
 T, K             3802.93  3630.33  2631.99
 RHO, KG/CU M    4.3357 0 2.6682 0 1.2055-1
 H, KJ/KG         0.00000  -617.26 -3813.46
 U, KJ/KG        -1168.51 -1719.55 -4563.90
 G, KJ/KG        -38009.8 -36901.9 -30119.9
 S, KJ/(KG)(K)     9.9949   9.9949   9.9949

 M, (1/n)          27.060   27.383   29.161
 MW, MOL WT        25.359   25.500   26.542
 (dLV/dLP)t      -1.04841 -1.04171 -1.01003
 (dLV/dLT)p        1.8277   1.7382   1.2192
 Cp, KJ/(KG)(K)    6.5830   6.1651   3.2914
 GAMMAs            1.1205   1.1199   1.1347
 SON VEL,M/SEC     1144.2   1111.1    922.8
 MACH NUMBER        0.000    1.000    2.993

 PERFORMANCE PARAMETERS

 Ae/At                      1.0000   8.9044
 CSTAR, M/SEC               1708.9   1708.9
 CF                         0.6502   1.6160
 Ivac, M/SEC                2103.2   3033.4
 Isp, M/SEC                 1111.1   2761.7


 MASS FRACTIONS

 *AL              0.00137  0.00094  0.00001
 ALCL             0.04165  0.03527  0.00265
 ALCL2            0.00325  0.00250  0.00013
 ALCL3            0.00055  0.00048  0.00010
 ALH              0.00026  0.00016  0.00000
 ALHCL            0.00021  0.00013  0.00000
 ALHCL2           0.00019  0.00013  0.00000
 ALH2CL           0.00001  0.00000  0.00000
 *ALO             0.00371  0.00241  0.00002
 ALOCL            0.00468  0.00364  0.00017
 ALOCL2           0.00003  0.00002  0.00000
 ALOH             0.03170  0.02408  0.00096
 ALOHCL           0.00531  0.00362  0.00009
 ALOHCL2          0.00323  0.00249  0.00027
 ALO2             0.00013  0.00006  0.00000
 AL(OH)2          0.00166  0.00100  0.00001
 AL(OH)2CL        0.00126  0.00085  0.00004
 AL(OH)3          0.00038  0.00023  0.00001
 AL2O             0.00253  0.00154  0.00000
 AL2O2            0.00121  0.00068  0.00000
 AL2O3            0.00001  0.00000  0.00000
 *CO              0.24220  0.24262  0.24285
 COCL             0.00001  0.00000  0.00000
 *CO2             0.01992  0.01929  0.01899
 COOH             0.00001  0.00000  0.00000
 *CL              0.02889  0.02773  0.01079
 CLO              0.00005  0.00003  0.00000
 CL2              0.00008  0.00006  0.00001
 *H               0.00299  0.00280  0.00092
 HALO             0.00006  0.00003  0.00000
 HALO2            0.00020  0.00013  0.00000
 HCN              0.00001  0.00000  0.00000
 HCO              0.00004  0.00003  0.00000
 HCL              0.15037  0.15793  0.20170
 HOCL             0.00003  0.00002  0.00000
 HO2              0.00001  0.00000  0.00000
 *H2              0.01969  0.02032  0.02331
 H2O              0.08000  0.07777  0.06790
 *N               0.00002  0.00001  0.00000
 *NH              0.00001  0.00001  0.00000
 NH2              0.00001  0.00000  0.00000
 NH3              0.00001  0.00000  0.00000
 *NO              0.00190  0.00140  0.00008
 *N2              0.08160  0.08185  0.08250
 *O               0.00200  0.00149  0.00006
 *OH              0.01312  0.01068  0.00133
 *O2              0.00069  0.00049  0.00002
 AL2O3(L)         0.25277  0.27504  0.34507

  * THERMODYNAMIC PROPERTIES FITTED TO 20000.K

 NOTE. WEIGHT FRACTION OF FUEL IN TOTAL FUELS AND OF OXIDANT IN TOTAL OXIDANTS










              THEORETICAL ROCKET PERFORMANCE ASSUMING EQUILIBRIUM

           COMPOSITION DURING EXPANSION FROM INFINITE AREA COMBUSTOR

 Pin =   734.8 PSIA
 CASE = _______________

             REACTANT                    WT FRACTION      ENERGY      TEMP
                                          (SEE NOTE)     KJ/KG-MOL      K  
 FUEL        AL(cr)                       0.6000000         0.000      0.000
 FUEL        C4H6,butadiene               0.4000000         0.000      0.000
 OXIDANT     NH4CLO4(II)                  1.0000000         0.000      0.000

 O/F=    2.30000  %FUEL= 30.303030  R,EQ.RATIO= 1.746489  PHI,EQ.RATIO= 2.343680

                 CHAMBER   THROAT     EXIT
 Pinf/P            1.0000   1.7226   56.000
 P, BAR            50.663   29.411  0.90469
 T, K             3812.59  3639.90  2641.28
 RHO, KG/CU M    4.3340 0 2.6671 0 1.2048-1
 H, KJ/KG         0.00000  -617.50 -3815.04
 U, KJ/KG        -1168.97 -1720.24 -4565.93
 G, KJ/KG        -38108.7 -37000.0 -30215.9
 S, KJ/(KG)(K)     9.9955   9.9955   9.9955

 M, (1/n)          27.118   27.444   29.247
 MW, MOL WT        25.420   25.566   26.647
 (dLV/dLP)t      -1.04972 -1.04284 -1.01040
 (dLV/dLT)p        1.8464   1.7550   1.2262
 Cp, KJ/(KG)(K)    6.6498   6.2233   3.3197
 GAMMAs            1.1204   1.1199   1.1343
 SON VEL,M/SEC     1144.4   1111.3    922.9
 MACH NUMBER        0.000    1.000    2.993

 PERFORMANCE PARAMETERS

 Ae/At                      1.0000   8.9061
 CSTAR, M/SEC               1709.3   1709.3
 CF                         0.6502   1.6160
 Ivac, M/SEC                2103.6   3034.1
 Isp, M/SEC                 1111.3   2762.3


 MASS FRACTIONS

 *AL              0.00127  0.00087  0.00001
 ALCL             0.03895  0.03271  0.00236
 ALCL2            0.00310  0.00237  0.00012
 ALCL3            0.00053  0.00046  0.00009
 ALH              0.00024  0.00014  0.00000
 ALHCL            0.00019  0.00012  0.00000
 ALHCL2           0.00018  0.00012  0.00000
 ALH2CL           0.00001  0.00000  0.00000
 *ALO             0.00374  0.00244  0.00002
 ALOCL            0.00476  0.00370  0.00018
 ALOCL2           0.00003  0.00002  0.00000
 ALOH             0.03087  0.02342  0.00094
 ALOHCL           0.00529  0.00359  0.00009
 ALOHCL2          0.00325  0.00249  0.00026
 ALO2             0.00014  0.00007  0.00000
 AL(OH)2          0.00172  0.00104  0.00001
 AL(OH)2CL        0.00132  0.00090  0.00005
 AL(OH)3          0.00041  0.00026  0.00001
 AL2O             0.00228  0.00137  0.00000
 AL2O2            0.00118  0.00066  0.00000
 AL2O3            0.00001  0.00000  0.00000
 *CO              0.23754  0.23790  0.23760
 COCL             0.00001  0.00000  0.00000
 *CO2             0.02117  0.02064  0.02116
 COOH             0.00001  0.00000  0.00000
 *CL              0.03021  0.02903  0.01144
 CLO              0.00006  0.00004  0.00000
 CL2              0.00009  0.00007  0.00001
 *H               0.00300  0.00281  0.00094
 HALO             0.00005  0.00003  0.00000
 HALO2            0.00022  0.00014  0.00000
 HCN              0.00001  0.00000  0.00000
 HCO              0.00004  0.00002  0.00000
 HCL              0.15211  0.15962  0.20267
 HOCL             0.00003  0.00002  0.00000
 HO2              0.00001  0.00000  0.00000
 *H2              0.01908  0.01966  0.02245
 H2O              0.08410  0.08227  0.07475
 *N               0.00002  0.00001  0.00000
 *NH              0.00001  0.00001  0.00000
 NH2              0.00001  0.00000  0.00000
 NH3              0.00001  0.00000  0.00000
 *NO              0.00212  0.00157  0.00010
 *N2              0.08205  0.08233  0.08305
 *O               0.00225  0.00170  0.00007
 *OH              0.01432  0.01176  0.00156
 *O2              0.00084  0.00061  0.00002
 AL2O3(L)         0.25116  0.27298  0.34005

  * THERMODYNAMIC PROPERTIES FITTED TO 20000.K

 NOTE. WEIGHT FRACTION OF FUEL IN TOTAL FUELS AND OF OXIDANT IN TOTAL OXIDANTS










              THEORETICAL ROCKET PERFORMANCE ASSUMING EQUILIBRIUM

           COMPOSITION DURING EXPANSION FROM INFINITE AREA COMBUSTOR

 Pin =   734.8 PSIA
 CASE = _______________

             REACTANT                    WT FRACTION      ENERGY      TEMP
                                          (SEE NOTE)     KJ/KG-MOL      K  
 FUEL        AL(cr)                       0.6000000         0.000      0.000
 FUEL        C4H6,butadiene               0.4000000         0.000      0.000
 OXIDANT     NH4CLO4(II)                  1.0000000         0.000      0.000

 O/F=    2.35000  %FUEL= 29.850746  R,EQ.RATIO= 1.718786  PHI,EQ.RATIO= 2.293814

                 CHAMBER   THROAT     EXIT
 Pinf/P            1.0000   1.7225   56.000
 P, BAR            50.663   29.411  0.90469
 T, K             3821.21  3648.44  2650.17
 RHO, KG/CU M    4.3330 0 2.6665 0 1.2041-1
 H, KJ/KG         0.00000  -617.64 -3816.06
 U, KJ/KG        -1169.23 -1720.63 -4567.37
 G, KJ/KG        -38195.8 -37086.5 -30306.4
 S, KJ/(KG)(K)     9.9957   9.9957   9.9957

 M, (1/n)          27.173   27.502   29.329
 MW, MOL WT        25.479   25.630   26.750
 (dLV/dLP)t      -1.05097 -1.04394 -1.01077
 (dLV/dLT)p        1.8644   1.7712   1.2336
 Cp, KJ/(KG)(K)    6.7131   6.2794   3.3516
 GAMMAs            1.1204   1.1199   1.1337
 SON VEL,M/SEC     1144.6   1111.4    922.9
 MACH NUMBER        0.000    1.000    2.993

 PERFORMANCE PARAMETERS

 Ae/At                      1.0000   8.9088
 CSTAR, M/SEC               1709.5   1709.5
 CF                         0.6502   1.6161
 Ivac, M/SEC                2103.8   3034.6
 Isp, M/SEC                 1111.4   2762.6


 MASS FRACTIONS

 *AL              0.00118  0.00081  0.00001
 ALCL             0.03651  0.03043  0.00214
 ALCL2            0.00297  0.00225  0.00011
 ALCL3            0.00052  0.00044  0.00008
 ALH              0.00022  0.00013  0.00000
 ALHCL            0.00018  0.00011  0.00000
 ALHCL2           0.00017  0.00011  0.00000
 ALH2CL           0.00001  0.00000  0.00000
 *ALO             0.00376  0.00245  0.00002
 ALOCL            0.00482  0.00375  0.00018
 ALOCL2           0.00004  0.00002  0.00000
 ALOH             0.03002  0.02275  0.00092
 ALOHCL           0.00525  0.00356  0.00009
 ALOHCL2          0.00326  0.00249  0.00026
 ALO2             0.00016  0.00008  0.00000
 AL(OH)2          0.00178  0.00108  0.00001
 AL(OH)2CL        0.00137  0.00094  0.00005
 AL(OH)3          0.00045  0.00028  0.00001
 AL2O             0.00205  0.00123  0.00000
 AL2O2            0.00115  0.00064  0.00000
 AL2O3            0.00001  0.00001  0.00000
 *CO              0.23301  0.23330  0.23248
 COCL             0.00001  0.00000  0.00000
 *CO2             0.02241  0.02199  0.02333
 COOH             0.00001  0.00000  0.00000
 *CL              0.03148  0.03028  0.01210
 CLO              0.00007  0.00005  0.00000
 CL2              0.00009  0.00007  0.00001
 *H               0.00300  0.00281  0.00095
 HALO             0.00005  0.00003  0.00000
 HALO2            0.00023  0.00015  0.00000
 HCN              0.00001  0.00000  0.00000
 HCO              0.00004  0.00002  0.00000
 HCL              0.15371  0.16116  0.20354
 HOCL             0.00003  0.00002  0.00000
 HO2              0.00001  0.00000  0.00000
 *H2              0.01849  0.01903  0.02161
 H2O              0.08805  0.08661  0.08136
 *N               0.00002  0.00001  0.00000
 *NH              0.00001  0.00001  0.00000
 NH2              0.00001  0.00000  0.00000
 *NO              0.00235  0.00176  0.00011
 *N2              0.08249  0.08278  0.08358
 *O               0.00252  0.00192  0.00009
 *OH              0.01552  0.01285  0.00181
 *O2              0.00102  0.00075  0.00003
 AL2O3(L)         0.24949  0.27083  0.33513

  * THERMODYNAMIC PROPERTIES FITTED TO 20000.K

 NOTE. WEIGHT FRACTION OF FUEL IN TOTAL FUELS AND OF OXIDANT IN TOTAL OXIDANTS










              THEORETICAL ROCKET PERFORMANCE ASSUMING EQUILIBRIUM

           COMPOSITION DURING EXPANSION FROM INFINITE AREA COMBUSTOR

 Pin =   734.8 PSIA
 CASE = _______________

             REACTANT                    WT FRACTION      ENERGY      TEMP
                                          (SEE NOTE)     KJ/KG-MOL      K  
 FUEL        AL(cr)                       0.6000000         0.000      0.000
 FUEL        C4H6,butadiene               0.4000000         0.000      0.000
 OXIDANT     NH4CLO4(II)                  1.0000000         0.000      0.000

 O/F=    2.40000  %FUEL= 29.411765  R,EQ.RATIO= 1.692237  PHI,EQ.RATIO= 2.246026

                 CHAMBER   THROAT     EXIT
 Pinf/P            1.0000   1.7225   56.000
 P, BAR            50.663   29.411  0.90469
 T, K             3828.90  3656.07  2658.68
 RHO, KG/CU M    4.3326 0 2.6663 0 1.2035-1
 H, KJ/KG         0.00000  -617.69 -3816.60
 U, KJ/KG        -1169.32 -1720.77 -4568.29
 G, KJ/KG        -38272.3 -37162.5 -30391.8
 S, KJ/(KG)(K)     9.9956   9.9956   9.9956

 M, (1/n)          27.226   27.558   29.408
 MW, MOL WT        25.536   25.692   26.850
 (dLV/dLP)t      -1.05218 -1.04501 -1.01116
 (dLV/dLT)p        1.8816   1.7869   1.2412
 Cp, KJ/(KG)(K)    6.7732   6.3338   3.3865
 GAMMAs            1.1204   1.1199   1.1331
 SON VEL,M/SEC     1144.6   1111.5    922.9
 MACH NUMBER        0.000    1.000    2.994

 PERFORMANCE PARAMETERS

 Ae/At                      1.0000   8.9124
 CSTAR, M/SEC               1709.5   1709.5
 CF                         0.6502   1.6161
 Ivac, M/SEC                2103.9   3034.9
 Isp, M/SEC                 1111.5   2762.8


 MASS FRACTIONS

 *AL              0.00110  0.00075  0.00001
 ALCL             0.03429  0.02838  0.00195
 ALCL2            0.00284  0.00214  0.00010
 ALCL3            0.00050  0.00042  0.00007
 ALH              0.00020  0.00012  0.00000
 ALHCL            0.00017  0.00010  0.00000
 ALHCL2           0.00016  0.00011  0.00000
 *ALO             0.00378  0.00246  0.00002
 ALOCL            0.00488  0.00379  0.00019
 ALOCL2           0.00004  0.00002  0.00000
 ALOH             0.02918  0.02209  0.00091
 ALOHCL           0.00521  0.00353  0.00009
 ALOHCL2          0.00327  0.00249  0.00025
 ALO2             0.00017  0.00009  0.00000
 AL(OH)2          0.00182  0.00111  0.00001
 AL(OH)2CL        0.00143  0.00098  0.00005
 AL(OH)3          0.00048  0.00030  0.00001
 AL2O             0.00186  0.00110  0.00000
 AL2O2            0.00112  0.00063  0.00000
 AL2O3            0.00001  0.00001  0.00000
 *CO              0.22860  0.22882  0.22746
 COCL             0.00001  0.00000  0.00000
 *CO2             0.02363  0.02332  0.02549
 COOH             0.00001  0.00000  0.00000
 *CL              0.03270  0.03149  0.01277
 CLO              0.00008  0.00005  0.00000
 CL2              0.00010  0.00008  0.00001
 *H               0.00299  0.00281  0.00096
 HALO             0.00005  0.00003  0.00000
 HALO2            0.00024  0.00015  0.00000
 HCN              0.00001  0.00000  0.00000
 HCO              0.00004  0.00002  0.00000
 HCL              0.15517  0.16255  0.20433
 HNO              0.00001  0.00000  0.00000
 HOCL             0.00004  0.00002  0.00000
 HO2              0.00001  0.00001  0.00000
 *H2              0.01793  0.01843  0.02080
 H2O              0.09186  0.09080  0.08773
 *N               0.00002  0.00001  0.00000
 *NH              0.00001  0.00001  0.00000
 NH2              0.00001  0.00000  0.00000
 *NO              0.00259  0.00196  0.00014
 *N2              0.08290  0.08321  0.08409
 *O               0.00279  0.00214  0.00010
 *OH              0.01673  0.01394  0.00207
 *O2              0.00121  0.00090  0.00004
 AL2O3(L)         0.24776  0.26862  0.33032

  * THERMODYNAMIC PROPERTIES FITTED TO 20000.K

 NOTE. WEIGHT FRACTION OF FUEL IN TOTAL FUELS AND OF OXIDANT IN TOTAL OXIDANTS










              THEORETICAL ROCKET PERFORMANCE ASSUMING EQUILIBRIUM

           COMPOSITION DURING EXPANSION FROM INFINITE AREA COMBUSTOR

 Pin =   734.8 PSIA
 CASE = _______________

             REACTANT                    WT FRACTION      ENERGY      TEMP
                                          (SEE NOTE)     KJ/KG-MOL      K  
 FUEL        AL(cr)                       0.6000000         0.000      0.000
 FUEL        C4H6,butadiene               0.4000000         0.000      0.000
 OXIDANT     NH4CLO4(II)                  1.0000000         0.000      0.000

 O/F=    2.45000  %FUEL= 28.985507  R,EQ.RATIO= 1.666772  PHI,EQ.RATIO= 2.200189

                 CHAMBER   THROAT     EXIT
 Pinf/P            1.0000   1.7226   56.000
 P, BAR            50.663   29.411  0.90469
 T, K             3835.72  3662.86  2666.83
 RHO, KG/CU M    4.3329 0 2.6664 0 1.2030-1
 H, KJ/KG         0.00000  -617.66 -3816.72
 U, KJ/KG        -1169.26 -1720.68 -4568.77
 G, KJ/KG        -38339.1 -37228.9 -30472.5
 S, KJ/(KG)(K)     9.9953   9.9953   9.9953

 M, (1/n)          27.275   27.610   29.484
 MW, MOL WT        25.591   25.753   26.947
 (dLV/dLP)t      -1.05334 -1.04605 -1.01156
 (dLV/dLT)p        1.8982   1.8022   1.2492
 Cp, KJ/(KG)(K)    6.8305   6.3867   3.4240
 GAMMAs            1.1204   1.1199   1.1325
 SON VEL,M/SEC     1144.6   1111.4    922.9
 MACH NUMBER        0.000    1.000    2.994

 PERFORMANCE PARAMETERS

 Ae/At                      1.0000   8.9167
 CSTAR, M/SEC               1709.5   1709.5
 CF                         0.6502   1.6162
 Ivac, M/SEC                2103.9   3035.1
 Isp, M/SEC                 1111.4   2762.9


 MASS FRACTIONS

 *AL              0.00103  0.00070  0.00001
 ALCL             0.03227  0.02652  0.00180
 ALCL2            0.00273  0.00204  0.00009
 ALCL3            0.00049  0.00040  0.00007
 ALH              0.00018  0.00011  0.00000
 ALHCL            0.00016  0.00009  0.00000
 ALHCL2           0.00015  0.00010  0.00000
 *ALO             0.00378  0.00246  0.00002
 ALOCL            0.00492  0.00382  0.00019
 ALOCL2           0.00004  0.00002  0.00000
 ALOH             0.02833  0.02142  0.00090
 ALOHCL           0.00517  0.00349  0.00009
 ALOHCL2          0.00328  0.00249  0.00025
 ALO2             0.00018  0.00009  0.00000
 AL(OH)2          0.00187  0.00114  0.00002
 AL(OH)2CL        0.00148  0.00101  0.00006
 AL(OH)3          0.00051  0.00033  0.00001
 AL2O             0.00168  0.00099  0.00000
 AL2O2            0.00109  0.00061  0.00000
 AL2O3            0.00001  0.00001  0.00000
 *CO              0.22430  0.22445  0.22256
 COCL             0.00001  0.00000  0.00000
 *CO2             0.02483  0.02463  0.02764
 COOH             0.00001  0.00000  0.00000
 *CL              0.03389  0.03266  0.01346
 CLO              0.00009  0.00006  0.00000
 CL2              0.00010  0.00008  0.00001
 *H               0.00298  0.00280  0.00098
 HALO             0.00005  0.00003  0.00000
 HALO2            0.00025  0.00016  0.00000
 HCO              0.00004  0.00002  0.00000
 HCL              0.15653  0.16383  0.20504
 HNO              0.00001  0.00000  0.00000
 HOCL             0.00004  0.00003  0.00000
 HO2              0.00001  0.00001  0.00000
 *H2              0.01739  0.01786  0.02002
 H2O              0.09552  0.09483  0.09388
 *N               0.00002  0.00001  0.00000
 *NH              0.00001  0.00001  0.00000
 NH2              0.00001  0.00000  0.00000
 *NO              0.00283  0.00216  0.00016
 *N2              0.08329  0.08363  0.08459
 *O               0.00307  0.00238  0.00012
 *OH              0.01793  0.01504  0.00234
 *O2              0.00143  0.00108  0.00005
 AL2O3(L)         0.24598  0.26637  0.32563

  * THERMODYNAMIC PROPERTIES FITTED TO 20000.K

 NOTE. WEIGHT FRACTION OF FUEL IN TOTAL FUELS AND OF OXIDANT IN TOTAL OXIDANTS










              THEORETICAL ROCKET PERFORMANCE ASSUMING EQUILIBRIUM

           COMPOSITION DURING EXPANSION FROM INFINITE AREA COMBUSTOR

 Pin =   734.8 PSIA
 CASE = _______________

             REACTANT                    WT FRACTION      ENERGY      TEMP
                                          (SEE NOTE)     KJ/KG-MOL      K  
 FUEL        AL(cr)                       0.6000000         0.000      0.000
 FUEL        C4H6,butadiene               0.4000000         0.000      0.000
 OXIDANT     NH4CLO4(II)                  1.0000000         0.000      0.000

 O/F=    2.50000  %FUEL= 28.571429  R,EQ.RATIO= 1.642325  PHI,EQ.RATIO= 2.156185

                 CHAMBER   THROAT     EXIT
 Pinf/P            1.0000   1.7226   56.000
 P, BAR            50.663   29.411  0.90469
 T, K             3841.77  3668.89  2674.64
 RHO, KG/CU M    4.3336 0 2.6669 0 1.2024-1
 H, KJ/KG         0.00000  -617.56 -3816.49
 U, KJ/KG        -1169.07 -1720.39 -4568.86
 G, KJ/KG        -38397.2 -37286.8 -30548.6
 S, KJ/(KG)(K)     9.9947   9.9947   9.9947

 M, (1/n)          27.323   27.661   29.557
 MW, MOL WT        25.645   25.811   27.041
 (dLV/dLP)t      -1.05445 -1.04705 -1.01196
 (dLV/dLT)p        1.9141   1.8171   1.2574
 Cp, KJ/(KG)(K)    6.8852   6.4384   3.4639
 GAMMAs            1.1204   1.1199   1.1318
 SON VEL,M/SEC     1144.5   1111.4    922.8
 MACH NUMBER        0.000    1.000    2.994

 PERFORMANCE PARAMETERS

 Ae/At                      1.0000   8.9216
 CSTAR, M/SEC               1709.3   1709.3
 CF                         0.6502   1.6163
 Ivac, M/SEC                2103.7   3035.1
 Isp, M/SEC                 1111.4   2762.8


 MASS FRACTIONS

 *AL              0.00096  0.00065  0.00001
 ALCL             0.03041  0.02484  0.00167
 ALCL2            0.00262  0.00194  0.00009
 ALCL3            0.00047  0.00039  0.00006
 ALH              0.00017  0.00010  0.00000
 ALHCL            0.00015  0.00008  0.00000
 ALHCL2           0.00014  0.00009  0.00000
 *ALO             0.00377  0.00246  0.00002
 ALOCL            0.00496  0.00385  0.00020
 ALOCL2           0.00004  0.00002  0.00000
 ALOH             0.02750  0.02076  0.00088
 ALOHCL           0.00511  0.00345  0.00009
 ALOHCL2          0.00329  0.00249  0.00025
 ALO2             0.00020  0.00010  0.00000
 AL(OH)2          0.00190  0.00117  0.00002
 AL(OH)2CL        0.00153  0.00105  0.00006
 AL(OH)3          0.00055  0.00035  0.00001
 AL2O             0.00153  0.00090  0.00000
 AL2O2            0.00106  0.00059  0.00000
 AL2O3            0.00001  0.00001  0.00000
 *CO              0.22012  0.22019  0.21777
 COCL             0.00001  0.00000  0.00000
 *CO2             0.02601  0.02593  0.02979
 COOH             0.00001  0.00000  0.00000
 *CL              0.03504  0.03380  0.01416
 CLO              0.00010  0.00007  0.00000
 CL2              0.00011  0.00009  0.00001
 *H               0.00297  0.00279  0.00098
 HALO             0.00005  0.00003  0.00000
 HALO2            0.00026  0.00017  0.00000
 HCO              0.00004  0.00002  0.00000
 HCL              0.15778  0.16500  0.20569
 HNO              0.00001  0.00000  0.00000
 HOCL             0.00004  0.00003  0.00000
 HO2              0.00001  0.00001  0.00000
 *H2              0.01688  0.01731  0.01927
 H2O              0.09905  0.09872  0.09981
 *N               0.00002  0.00001  0.00000
 *NH              0.00001  0.00001  0.00000
 NH2              0.00001  0.00000  0.00000
 *NO              0.00308  0.00236  0.00018
 *N2              0.08367  0.08402  0.08507
 *O               0.00336  0.00262  0.00015
 *OH              0.01912  0.01613  0.00263
 *O2              0.00167  0.00128  0.00007
 AL2O3(L)         0.24418  0.26410  0.32106

  * THERMODYNAMIC PROPERTIES FITTED TO 20000.K

 NOTE. WEIGHT FRACTION OF FUEL IN TOTAL FUELS AND OF OXIDANT IN TOTAL OXIDANTS










              THEORETICAL ROCKET PERFORMANCE ASSUMING EQUILIBRIUM

           COMPOSITION DURING EXPANSION FROM INFINITE AREA COMBUSTOR

 Pin =   734.8 PSIA
 CASE = _______________

             REACTANT                    WT FRACTION      ENERGY      TEMP
                                          (SEE NOTE)     KJ/KG-MOL      K  
 FUEL        AL(cr)                       0.6000000         0.000      0.000
 FUEL        C4H6,butadiene               0.4000000         0.000      0.000
 OXIDANT     NH4CLO4(II)                  1.0000000         0.000      0.000

 O/F=    2.55000  %FUEL= 28.169014  R,EQ.RATIO= 1.618837  PHI,EQ.RATIO= 2.113907

                 CHAMBER   THROAT     EXIT
 Pinf/P            1.0000   1.7226   56.000
 P, BAR            50.663   29.411  0.90469
 T, K             3847.11  3674.22  2682.10
 RHO, KG/CU M    4.3347 0 2.6676 0 1.2020-1
 H, KJ/KG         0.00000  -617.39 -3815.92
 U, KJ/KG        -1168.76 -1719.92 -4568.59
 G, KJ/KG        -38447.2 -37336.8 -30620.3
 S, KJ/(KG)(K)     9.9938   9.9938   9.9938

 M, (1/n)          27.368   27.708   29.628
 MW, MOL WT        25.697   25.868   27.132
 (dLV/dLP)t      -1.05552 -1.04803 -1.01238
 (dLV/dLT)p        1.9293   1.8316   1.2659
 Cp, KJ/(KG)(K)    6.9372   6.4888   3.5058
 GAMMAs            1.1204   1.1200   1.1311
 SON VEL,M/SEC     1144.3   1111.2    922.7
 MACH NUMBER        0.000    1.000    2.994

 PERFORMANCE PARAMETERS

 Ae/At                      1.0000   8.9270
 CSTAR, M/SEC               1709.1   1709.1
 CF                         0.6502   1.6164
 Ivac, M/SEC                2103.4   3035.0
 Isp, M/SEC                 1111.2   2762.6


 MASS FRACTIONS

 *AL              0.00090  0.00060  0.00001
 ALCL             0.02871  0.02332  0.00156
 ALCL2            0.00252  0.00186  0.00008
 ALCL3            0.00046  0.00038  0.00006
 ALH              0.00015  0.00009  0.00000
 ALHCL            0.00014  0.00008  0.00000
 ALHCL2           0.00013  0.00009  0.00000
 *ALO             0.00375  0.00245  0.00002
 ALOCL            0.00499  0.00387  0.00020
 ALOCL2           0.00004  0.00003  0.00000
 ALOH             0.02668  0.02011  0.00087
 ALOHCL           0.00506  0.00340  0.00009
 ALOHCL2          0.00329  0.00248  0.00025
 ALO2             0.00021  0.00011  0.00000
 AL(OH)2          0.00194  0.00119  0.00002
 AL(OH)2CL        0.00157  0.00108  0.00006
 AL(OH)3          0.00058  0.00037  0.00002
 AL2O             0.00139  0.00081  0.00000
 AL2O2            0.00103  0.00057  0.00000
 AL2O3            0.00001  0.00001  0.00000
 *CO              0.21605  0.21604  0.21307
 COCL             0.00001  0.00000  0.00000
 *CO2             0.02717  0.02721  0.03192
 COOH             0.00001  0.00000  0.00000
 *CL              0.03615  0.03489  0.01487
 CLO              0.00011  0.00007  0.00000
 CL2              0.00012  0.00009  0.00001
 *H               0.00295  0.00278  0.00099
 HALO             0.00005  0.00003  0.00000
 HALO2            0.00027  0.00018  0.00000
 HCO              0.00004  0.00002  0.00000
 HCL              0.15895  0.16608  0.20628
 HNO              0.00001  0.00000  0.00000
 HOCL             0.00005  0.00003  0.00000
 HO2              0.00002  0.00001  0.00000
 *H2              0.01639  0.01678  0.01854
 H2O              0.10244  0.10246  0.10553
 *N               0.00002  0.00001  0.00000
 *NH              0.00001  0.00001  0.00000
 NH2              0.00001  0.00000  0.00000
 *NO              0.00333  0.00257  0.00021
 *N2              0.08403  0.08440  0.08554
 *O               0.00366  0.00287  0.00017
 *OH              0.02030  0.01722  0.00294
 *O2              0.00194  0.00150  0.00009
 AL2O3(L)         0.24236  0.26181  0.31660

  * THERMODYNAMIC PROPERTIES FITTED TO 20000.K

 NOTE. WEIGHT FRACTION OF FUEL IN TOTAL FUELS AND OF OXIDANT IN TOTAL OXIDANTS










              THEORETICAL ROCKET PERFORMANCE ASSUMING EQUILIBRIUM

           COMPOSITION DURING EXPANSION FROM INFINITE AREA COMBUSTOR

 Pin =   734.8 PSIA
 CASE = _______________

             REACTANT                    WT FRACTION      ENERGY      TEMP
                                          (SEE NOTE)     KJ/KG-MOL      K  
 FUEL        AL(cr)                       0.6000000         0.000      0.000
 FUEL        C4H6,butadiene               0.4000000         0.000      0.000
 OXIDANT     NH4CLO4(II)                  1.0000000         0.000      0.000

 O/F=    2.60000  %FUEL= 27.777778  R,EQ.RATIO= 1.596253  PHI,EQ.RATIO= 2.073255

                 CHAMBER   THROAT     EXIT
 Pinf/P            1.0000   1.7226   56.000
 P, BAR            50.663   29.411  0.90469
 T, K             3851.79  3678.92  2689.24
 RHO, KG/CU M    4.3363 0 2.6686 0 1.2015-1
 H, KJ/KG         0.00000  -617.17 -3815.07
 U, KJ/KG        -1168.34 -1719.30 -4568.01
 G, KJ/KG        -38489.9 -37379.6 -30687.9
 S, KJ/(KG)(K)     9.9927   9.9927   9.9927

 M, (1/n)          27.411   27.754   29.697
 MW, MOL WT        25.747   25.923   27.221
 (dLV/dLP)t      -1.05654 -1.04897 -1.01280
 (dLV/dLT)p        1.9439   1.8456   1.2746
 Cp, KJ/(KG)(K)    6.9867   6.5380   3.5498
 GAMMAs            1.1205   1.1200   1.1304
 SON VEL,M/SEC     1144.1   1111.0    922.5
 MACH NUMBER        0.000    1.000    2.994

 PERFORMANCE PARAMETERS

 Ae/At                      1.0000   8.9328
 CSTAR, M/SEC               1708.8   1708.8
 CF                         0.6502   1.6165
 Ivac, M/SEC                2103.0   3034.9
 Isp, M/SEC                 1111.0   2762.3


 MASS FRACTIONS

 *AL              0.00084  0.00056  0.00001
 ALCL             0.02715  0.02192  0.00146
 ALCL2            0.00243  0.00178  0.00008
 ALCL3            0.00045  0.00037  0.00006
 ALH              0.00014  0.00008  0.00000
 ALHCL            0.00013  0.00007  0.00000
 ALHCL2           0.00012  0.00008  0.00000
 *ALO             0.00372  0.00243  0.00002
 ALOCL            0.00502  0.00388  0.00021
 ALOCL2           0.00004  0.00003  0.00000
 ALOH             0.02587  0.01948  0.00086
 ALOHCL           0.00500  0.00336  0.00009
 ALOHCL2          0.00330  0.00248  0.00024
 ALO2             0.00022  0.00012  0.00000
 AL(OH)2          0.00196  0.00121  0.00002
 AL(OH)2CL        0.00161  0.00111  0.00006
 AL(OH)3          0.00061  0.00040  0.00002
 AL2O             0.00127  0.00073  0.00000
 AL2O2            0.00099  0.00055  0.00000
 AL2O3            0.00001  0.00001  0.00000
 *CO              0.21208  0.21199  0.20847
 COCL             0.00001  0.00000  0.00000
 *CO2             0.02832  0.02848  0.03406
 COOH             0.00001  0.00000  0.00000
 *CL              0.03722  0.03595  0.01559
 CLO              0.00012  0.00008  0.00000
 CL2              0.00012  0.00010  0.00001
 *H               0.00294  0.00276  0.00100
 HALO             0.00005  0.00003  0.00000
 HALO2            0.00028  0.00018  0.00000
 HCO              0.00003  0.00002  0.00000
 HCL              0.16005  0.16708  0.20681
 HNO              0.00001  0.00000  0.00000
 HOCL             0.00005  0.00004  0.00000
 HO2              0.00002  0.00001  0.00000
 *H2              0.01592  0.01628  0.01785
 H2O              0.10570  0.10607  0.11103
 *N               0.00002  0.00001  0.00000
 *NH              0.00001  0.00001  0.00000
 NH2              0.00001  0.00000  0.00000
 *NO              0.00359  0.00279  0.00024
 *N2              0.08437  0.08477  0.08599
 *O               0.00395  0.00313  0.00020
 *OH              0.02147  0.01831  0.00325
 *O2              0.00222  0.00174  0.00011
 AL2O3(L)         0.24052  0.25951  0.31226

  * THERMODYNAMIC PROPERTIES FITTED TO 20000.K

 NOTE. WEIGHT FRACTION OF FUEL IN TOTAL FUELS AND OF OXIDANT IN TOTAL OXIDANTS










              THEORETICAL ROCKET PERFORMANCE ASSUMING EQUILIBRIUM

           COMPOSITION DURING EXPANSION FROM INFINITE AREA COMBUSTOR

 Pin =   734.8 PSIA
 CASE = _______________

             REACTANT                    WT FRACTION      ENERGY      TEMP
                                          (SEE NOTE)     KJ/KG-MOL      K  
 FUEL        AL(cr)                       0.6000000         0.000      0.000
 FUEL        C4H6,butadiene               0.4000000         0.000      0.000
 OXIDANT     NH4CLO4(II)                  1.0000000         0.000      0.000

 O/F=    2.65000  %FUEL= 27.397260  R,EQ.RATIO= 1.574521  PHI,EQ.RATIO= 2.034137

                 CHAMBER   THROAT     EXIT
 Pinf/P            1.0000   1.7226   56.000
 P, BAR            50.663   29.411  0.90469
 T, K             3855.87  3683.03  2696.05
 RHO, KG/CU M    4.3382 0 2.6698 0 1.2012-1
 H, KJ/KG         0.00000  -616.90 -3813.97
 U, KJ/KG        -1167.83 -1718.53 -4567.14
 G, KJ/KG        -38525.8 -37415.8 -30751.5
 S, KJ/(KG)(K)     9.9915   9.9915   9.9915

 M, (1/n)          27.452   27.797   29.763
 MW, MOL WT        25.795   25.976   27.307
 (dLV/dLP)t      -1.05752 -1.04988 -1.01323
 (dLV/dLT)p        1.9578   1.8593   1.2835
 Cp, KJ/(KG)(K)    7.0337   6.5860   3.5956
 GAMMAs            1.1205   1.1200   1.1296
 SON VEL,M/SEC     1143.9   1110.8    922.4
 MACH NUMBER        0.000    1.000    2.994

 PERFORMANCE PARAMETERS

 Ae/At                      1.0000   8.9390
 CSTAR, M/SEC               1708.4   1708.4
 CF                         0.6502   1.6166
 Ivac, M/SEC                2102.5   3034.6
 Isp, M/SEC                 1110.8   2761.9


 MASS FRACTIONS

 *AL              0.00079  0.00052  0.00001
 ALCL             0.02570  0.02065  0.00137
 ALCL2            0.00234  0.00171  0.00007
 ALCL3            0.00044  0.00035  0.00005
 ALH              0.00013  0.00007  0.00000
 ALHCL            0.00012  0.00007  0.00000
 ALHCL2           0.00012  0.00008  0.00000
 *ALO             0.00369  0.00241  0.00002
 ALOCL            0.00504  0.00389  0.00021
 ALOCL2           0.00004  0.00003  0.00000
 ALOH             0.02507  0.01885  0.00084
 ALOHCL           0.00494  0.00331  0.00009
 ALOHCL2          0.00330  0.00248  0.00024
 ALO2             0.00024  0.00012  0.00000
 AL(OH)2          0.00199  0.00123  0.00002
 AL(OH)2CL        0.00165  0.00114  0.00007
 AL(OH)3          0.00064  0.00042  0.00002
 AL2O             0.00115  0.00066  0.00000
 AL2O2            0.00096  0.00053  0.00000
 AL2O3            0.00002  0.00001  0.00000
 *CO              0.20821  0.20805  0.20397
 COCL             0.00001  0.00000  0.00000
 *CO2             0.02944  0.02973  0.03618
 COOH             0.00001  0.00000  0.00000
 *CL              0.03825  0.03698  0.01632
 CLO              0.00013  0.00009  0.00000
 CL2              0.00013  0.00010  0.00001
 *H               0.00291  0.00274  0.00101
 HALO             0.00005  0.00003  0.00000
 HALO2            0.00029  0.00019  0.00000
 HCO              0.00003  0.00002  0.00000
 HCL              0.16107  0.16802  0.20730
 HNO              0.00001  0.00000  0.00000
 HOCL             0.00005  0.00004  0.00000
 HO2              0.00002  0.00001  0.00000
 *H2              0.01547  0.01579  0.01718
 H2O              0.10883  0.10953  0.11633
 *N               0.00002  0.00001  0.00000
 *NH              0.00001  0.00001  0.00000
 NH2              0.00001  0.00000  0.00000
 *NO              0.00385  0.00301  0.00027
 *N2              0.08471  0.08512  0.08643
 *O               0.00425  0.00338  0.00023
 *OH              0.02262  0.01938  0.00358
 *O2              0.00253  0.00200  0.00014
 AL2O3(L)         0.23868  0.25722  0.30803

  * THERMODYNAMIC PROPERTIES FITTED TO 20000.K

 NOTE. WEIGHT FRACTION OF FUEL IN TOTAL FUELS AND OF OXIDANT IN TOTAL OXIDANTS


